LTspice 26.0.2 for Windows
Circuit: C:\Users\ethan\Documents\STM32CubeIDE\workspace\Eurorack_WS2812_LED_Controller\eda\adc_driver.net
Start Time: Mon Jun 29 21:25:30 2026
solver = Normal
Maximum thread count: 32
tnom = 27
temp = 27
method = trap
Direct Newton iteration failed to find operating point.
Starting Gmin stepping
Gmin stepping failed to find operating point. Use".option gminsteps=0" to skip all Gmin stepping.
Starting source stepping with srcstepmethod=0
Source stepping succeeded in finding the operating point.

Total elapsed time: 0.534 seconds.

Files loaded:
C:\Users\ethan\Documents\STM32CubeIDE\workspace\Eurorack_WS2812_LED_Controller\eda\adc_driver.net
C:\Users\ethan\AppData\Local\LTspice\lib\sub\AD8541.lib
C:\Users\ethan\Documents\STM32CubeIDE\workspace\Eurorack_WS2812_LED_Controller\eda\tl07xh_tl08xh.lib

