LTspice 26.0.2 for Windows
Circuit: C:\Users\ethan\Documents\STM32CubeIDE\workspace\Eurorack_WS2812_LED_Controller\eda\gate_input.net
Start Time: Sat Jun 13 15:21:07 2026
solver = Normal
Maximum thread count: 32
tnom = 27
temp = 27
method = trap
Direct Newton iteration succeeded in finding operating point.
Total elapsed time: 0.061 seconds.

Files loaded:
C:\Users\ethan\Documents\STM32CubeIDE\workspace\Eurorack_WS2812_LED_Controller\eda\gate_input.net
C:\Users\ethan\AppData\Local\LTspice\lib\cmp\standard.dio
C:\Users\ethan\AppData\Local\LTspice\lib\cmp\standard.bjt
C:\Users\ethan\Documents\STM32CubeIDE\workspace\Eurorack_WS2812_LED_Controller\eda\BAT54S.lib

